300
Lattice="14.404799 0.0 0.0 0.0 14.404799 0.0 0.0 0.0 14.404799" Properties=species:S:1:pos:R:3 pbc="T T T"
H        2.40464613      13.16723592       2.46516508
O        2.11206125      13.47003964       1.58818474
H        2.98489719      13.75308165       1.27253827
H       14.06308336       1.27659498       7.85177512
O        0.02532915       1.28398835       7.01357994
H       13.85679537       0.60794499       6.55990764
H        5.60164570       5.47734747       0.87021355
O        6.36170520       5.16189670       0.41668668
H        6.06520113       4.30737455       0.10010417
H       10.48755788       5.11593525       4.06143604
O       11.16154857       4.77670510       4.76248942
H       11.36490530       3.73959162       4.48060680
H        8.80148510       9.60651129      13.01417360
O        9.20209212      10.59962107      12.72343894
H        8.47638214      10.94934596      13.13350296
H        6.52543737       6.83376851       3.23213680
O        7.18615041       7.04410771       3.87880481
H        6.72176781       7.02110230       4.67696177
H        6.77727201       0.38059594       6.19144216
O        6.07088566       0.85588616       5.70668963
H        5.36726406       0.74959567       6.36001472
H        1.74937881       9.63134828       2.01615954
O        2.11237429      10.12968943       2.74787860
H        1.44497472      10.13008036       3.41286318
H        2.19233533       5.55458975       0.50116007
O        2.87175764       4.89646256       0.36981518
H        2.49896480       4.38666511      14.06399607
H        0.32538415       8.58277295       5.42945946
O        0.36734080       9.49552975       5.00699912
H       13.83611088       9.65469873       5.03092615
H        7.63832372       4.49082397       6.00534914
O        6.81028302       4.04666351       6.21960866
H        6.94347970       3.13697303       5.89726555
H       12.58747722       8.61675373       9.60385803
O       11.95572020       8.14067497       8.97499898
H       11.12530628       7.85201603       9.49201625
H        2.20447934       9.27386836       9.38063726
O        2.08306074       9.98919948       9.97684552
H        1.28238870      10.44232873       9.64162050
H        9.31950341       1.86248106       4.91981144
O        8.46948909       2.07560832       4.60699096
H        8.18275824       1.15382758       4.28374899
H        0.33307548      12.10645527       7.95241131
O        0.73979646      11.78245817       7.13448023
H        0.13588753      11.15902568       6.77155826
H        2.44865244      13.11752580       7.09510819
O        3.26408590      13.63499716       7.43581000
H        3.73554165      12.97340341       7.95754872
H       10.90735534       4.12755566      11.29024114
O       10.68073053       3.33900367      10.81121395
H        9.75710663       3.16948099      11.10317744
H        2.79248092       2.52014721      14.31641565
O        3.28942311       1.74694028      14.04652120
H        2.68049549       1.25336848      13.47768725
H        5.78546456       4.77766688       4.29386089
O        5.49031766       4.63858772       3.38463602
H        4.53597435       4.80210257       3.41704112
H        1.86848341       6.71290725       4.40598133
O        1.63943281       6.71186133       5.36430507
H        1.17147983       5.85222349       5.40345675
H       14.19278942       4.63117356       2.97125538
O       13.80092277       3.76523925       2.77040608
H       14.12272472       3.19886536       3.48375521
H       13.17875967       5.68579713      11.94981196
O       12.40029923       5.85648785      11.42178959
H       12.73362298       5.87416882      10.51712327
H        6.63893676      14.19654325       3.68029190
O        7.52946330      13.87242423       3.29642284
H        7.26916732      14.00155976       2.38300252
H       14.20228379      10.16658525      12.05776984
O        0.16598346       9.30017326      12.29882522
H        0.09418722       9.32677524      13.27094556
H        9.85043904       1.24459420      10.78917693
O        9.56262285       0.27341898      10.91664567
H        9.09787174       0.60736287      10.24937787
H        6.12407886       1.60740219       9.71084763
O        5.88437065       1.47171029       8.76510459
H        6.71729266       2.04891082       8.42258707
H        2.11499393      11.69107666      11.84618539
O        2.60584824      12.61994879      11.91844371
H        3.26334865      12.61262785      11.08027574
H        1.23496745       7.91012579      10.45709084
O        1.48563659       7.06112305      10.75125047
H        1.90117096       7.25661874      11.53503999
H        3.89876050      13.48882467       5.00003036
O        4.20566278      13.79689710       4.10002750
H        4.52857790       0.27568830       4.33058838
H       10.73524153       0.80815115       1.75514308
O       11.31027421       1.39461817       1.56237714
H       11.69405800       1.60027813       2.39927976
H        4.07917754       5.82902981      11.21573098
O        4.40212730       5.76110589      12.07475985
H        3.70270099       5.52623835      12.48489504
H        7.53554668       6.76146716       8.13131641
O        7.71231550       7.45215794       8.76803716
H        8.68783977       7.38231992       8.86628924
H        3.17715761       7.41591036       8.38972827
O        3.94361018       7.94482720       8.62158305
H        4.56000132       7.34289315       9.08654094
H        8.36815844      12.04534350       4.55234986
O        9.10828193      11.85512171       5.13702290
H        9.41521525      12.73783162       5.41595657
H       10.18398929      10.50992932       0.38153063
O       10.63586371      10.64215745       1.22937523
H        9.91320797      10.74523092       1.81174730
H        5.57821386       2.06003472       2.88045935
O        5.45262376       1.36314947       2.22221037
H        4.81700927       1.76721281       1.60494850
H        7.79401885      10.87276792      10.90327559
O        7.38481710      10.89016403      10.01848094
H        6.83950262      10.08054803      10.03585640
H        8.58918996       2.64463815      13.71311051
O        9.10550817       3.41563562      13.39663197
H        9.44343346       3.78106612      14.23330940
H        2.77783042       8.99398745      13.66947115
O        3.29638864       8.37742707      14.17864111
H        4.18710479       8.60685325      13.90283818
H        5.40790426      12.31640040       9.77333361
O        4.89636499      13.11719243       9.93446433
H        5.23441550      13.70826164       9.26727007
H       13.78593113       8.14756112       7.99580384
O        0.55377530       8.23860023       7.75963989
H        0.93601367       7.59721120       7.22072576
H        4.57252564      11.78801550      13.33673094
O        4.77922303      10.94413943      13.73132700
H        5.54697916      11.16374118      14.28281545
H        4.81046133      13.72846859       1.22128255
O        5.34385724      13.30204734       0.55519050
H        6.23678836      13.64227093       0.78618835
H        8.83332920       9.27064587       3.67574498
O        8.38400403       9.84027939       3.03979489
H        7.69363847      10.36363579       3.49327217
H        4.39930472       9.59822428       3.56182097
O        4.99201595       9.87680097       2.86227874
H        4.40491736      10.46360500       2.35161690
H       11.01104994       8.08932912       1.50476199
O       11.26375830       7.58549516       2.30179443
H       11.71063129       6.79547938       1.92718836
H        0.25651383       7.80555856       3.19154857
O        0.49822120       6.91675129       2.92839064
H        0.88225880       6.97746775       2.04521193
H        9.66067959       0.75511650       6.68009286
O        9.29432392      14.37901037       7.12833549
H        8.79574577       0.36512792       7.84560891
H        5.10095375       9.23143560       6.03925443
O        4.75888384       8.53899240       5.48151741
H        3.81285642       8.61582274       5.47841718
H        2.28532047       1.79298288       7.57215903
O        2.99051806       2.06909622       8.16887328
H        3.45596398       1.23657044       8.24251721
H        5.36586579       2.15481044      13.04359409
O        6.16272839       2.30633052      13.56349503
H        5.92344384       1.73988750      14.39302696
H        1.79670891       0.86292408       3.38663846
O        0.95233399       1.04460282       3.65181205
H        1.15128636       1.83625372       4.24466069
H       11.27151622       7.50625852      13.22103819
O       11.40779720       8.33003208      13.66208962
H       10.85737997       8.96039446      13.21270450
H        0.27313443      12.55558221       3.09774819
O       14.38316631      12.41168083       3.98428809
H        0.20221132      13.36100619       4.37059381
H        0.15184258       1.01302766       0.36962490
O        0.19433741       1.75863414       0.90255396
H       13.95909380       1.53466735       1.54705431
H       12.19334004       7.74493715       4.80990732
O       12.45290339       7.57856716       5.73976754
H       12.06799080       6.69071263       5.89147800
H       11.90863530       0.16916591      10.56508486
O       12.76324191       0.04976584      10.95389706
H       12.50857410      14.26589289      11.90187861
H        9.96990790       2.37435877       8.42550425
O        9.01459757       2.51581112       8.40769014
H        8.90878147       3.46537847       8.48611507
H        7.27220990      10.26852795       7.69409904
O        7.33538175       9.81848373       6.88863531
H        8.15826556      10.17253741       6.48256348
H       13.24310144       3.58866625      11.61812335
O       13.60673108       2.97864791      10.92144216
H       13.21521056       2.15126498      11.11747603
H        3.63900466       7.04550597       1.63181734
O        3.75946973       7.02089243       2.55583547
H        4.05808817       7.91866388       2.77145198
H       12.81425616      10.89416477       9.02842447
O       13.45308441      11.07391527       9.70961195
H       13.00037508      11.76573941      10.20044960
H        5.54865426       8.35298716      12.49273687
O        6.16141761       8.95099495      12.15351289
H        5.64608468       9.74443431      12.09720591
H       10.53687029      12.33108627       3.55257190
O       10.87923751      13.05651004       3.04256923
H       11.83666022      12.74071355       2.89056952
H       13.39850104      10.06768597       1.35523214
O       13.67938424       9.22397289       1.74252838
H       12.92070366       8.61871542       1.55923333
H        8.53368711      13.84023908      14.39209488
O        8.30061712       0.20783667       0.52648706
H        9.05208702       0.15936053       1.13010669
H       11.74033619       2.26626264      13.87633439
O       11.78874577       1.62346607      13.23866777
H       11.10697521       0.95882217      13.52080471
H        1.19924400       3.36002005       6.69969058
O        1.10331861       3.78110329       5.77603111
H        2.01237340       3.83716101       5.51393006
H        4.90803754       5.36501522       6.60755666
O        4.33286747       5.67447011       5.87089414
H        3.86255484       6.42687242       6.28000673
H        6.09050375      10.74823241       5.15445459
O        6.10790378      11.69754064       4.94012577
H        5.19798646      11.85645607       4.66734570
H        7.85498637      12.11368483       1.83322532
O        7.93122227      11.78666997       0.93185470
H        7.27106818      11.09981495       0.92248178
H       12.85712706       3.89207862       8.66008184
O       12.55789745       3.68383251       7.77723695
H       13.19796206       4.13469018       7.26699982
H        3.96597539       1.73215330      10.20575443
O        3.89532864       1.84608697      11.16319552
H        3.47335229       1.07841509      11.54367052
H       14.01351288       7.24762271      13.17442806
O       14.35189145       6.74038786      13.91611070
H       13.76193075       5.99553433      14.11769518
H        2.48808399      10.40867920       5.09550208
O        3.12728127      10.90305981       5.63019004
H        2.58310503      11.49360895       6.17876368
H       11.25365959       9.22415762       6.34460823
O       11.06670473      10.03075605       6.86184975
H       10.59468207      10.48285675       6.05773967
H        9.05298748       7.69071226      11.36464798
O        9.66356282       8.30540832      11.07111363
H        9.20503615       8.54269230      10.15367587
H        5.19048561       4.38718648       9.32132911
O        4.52686720       4.90343355       8.92085523
H        4.07564367       4.32170374       8.29172261
H       11.57490070       9.57109541       3.45402682
O       11.87747282      10.14985475       4.18405670
H       12.83659208      10.15368066       4.02075469
H        8.09131115       3.94764280       3.14912439
O        8.76672193       4.65243249       2.75678003
H        8.06783600       5.27141272       2.35499682
H        8.81854962       8.25035005       5.38085595
O        9.61729540       7.86195236       5.04037672
H        9.28413048       7.14660829       4.49209157
H       11.49207582      13.23174447       6.66565582
O       12.17290386      13.39859603       5.99838334
H       12.61307639      12.46011852       5.96930067
H       12.12729502       4.21469144       1.34097849
O       12.45889905       4.31961940       0.42309054
H       13.25726133       3.75844767       0.43813959
H        0.13757850       6.20533785       9.15874679
O        0.01602032       5.22354152       9.12892564
H        0.84377252       4.85195043       9.47066490
H       10.37865890      12.22939414      13.34654297
O       10.62133709      13.06012219      12.93784622
H       10.29640933      12.90051820      12.04139311
H       12.37002604       1.11741253       4.97877968
O       12.16968244       2.05504817       4.96033708
H       12.95351467       2.35534645       5.41016431
H        9.82917583      12.73920356       8.51754306
O       10.69203311      12.38681923       8.80217060
H       10.56012178      11.40617998       8.79893055
H       10.54891165       4.87369016       7.57210366
O        9.95491474       5.68338606       7.56922586
H       10.55458374       6.34586605       7.17010405
H        7.83326527       3.33183773      11.71425683
O        7.15440440       3.27391414      11.01682086
H        6.46674615       3.38539869      11.68702804
H        6.73789786      12.23856563       7.13939779
O        6.89019853      13.07654531       7.62444270
H        7.47225637      12.74567364       8.32718060
H        1.95112012       2.81473249       2.44571203
O        2.76741183       2.97886144       2.92301835
H        3.10204614       3.77792027       2.47594502
H       12.48977190      13.28344122      13.92511580
O       13.37145866      13.67207003      13.73770215
H       13.05131948       0.19564346      13.57395013
H        7.18587107      13.45141522      13.03326561
O        6.86674184      12.60055005      12.68751060
H        6.25394787      12.87511401      12.11561743
H        0.30177064       0.92354452      11.58288102
O        0.73599878       1.09631875      12.43004684
H        0.96195455       0.21729177      12.76976344
H        1.42760480      11.01605564       0.63310618
O        1.12758541      11.09698378      14.11032344
H        0.97902837      12.05407663      13.99106669
H        8.89131246       5.96409463       0.34647003
O        9.84892406       5.89088520       0.11926505
H        9.93764369       5.82222612      13.61391610
H        7.02776093       6.65509206      12.53306014
O        7.88911479       6.08377969      12.51718868
H        7.61177236       5.24458810      12.65949406
H        8.16641210       8.38384527       1.22186089
O        7.97239167       8.31851133       0.25736598
H        7.85744267       7.41665235       0.21851316
H        3.92911268      10.43644344       8.69731818
O        4.48447924      10.81961236       8.06801506
H        4.47886606      10.25438226       7.31979761
H        2.67120511       3.56303939      11.60214908
O        1.93103327       4.06670588      12.08086854
H        1.11409757       3.74651052      11.61504782
